Label : DigiCert TLS RSA SHA256 2020 CA1
Key Size : 2048
Version : X509 V3
Serial : 06d8d904d5584346f68a2fa754227ec4
Issuer : "CN=DigiCert Global Root CA,OU=www.digicert.com,O=DigiCert Inc,C=US"
Subject : "CN=DigiCert TLS RSA SHA256 2020 CA1,O=DigiCert Inc,C=US"
Not Before : April 13, 2021 8:00:00 PM GMT-04:00

Not After : April 13, 2031 7:59:59 PM GMT-04:00

Public Key
    30 82 01 22 30 0D 06 09 2A 86 48 86 F7 0D 01 01
    01 05 00 03 82 01 0F 00 30 82 01 0A 02 82 01 01
    00 C1 4B B3 65 47 70 BC DD 4F 58 DB EC 9C ED C3
    66 E5 1F 31 13 54 AD 4A 66 46 1F 2C 0A EC 64 07
    E5 2E DC DC B9 0A 20 ED DF E3 C4 D0 9E 9A A9 7A
    1D 82 88 E5 11 56 DB 1E 9F 58 C2 51 E7 2C 34 0D
    2E D2 92 E1 56 CB F1 79 5F B3 BB 87 CA 25 03 7B
    9A 52 41 66 10 60 4F 57 13 49 F0 E8 37 67 83 DF
    E7 D3 4B 67 4C 22 51 A6 DF 0E 99 10 ED 57 51 74
    26 E2 7D C7 CA 62 2E 13 1B 7F 23 88 25 53 6F C1
    34 58 00 8B 84 FF F8 BE A7 58 49 22 7B 96 AD A2
    88 9B 15 BC A0 7C DF E9 51 A8 D5 B0 ED 37 E2 36
    B4 82 4B 62 B5 49 9A EC C7 67 D6 E3 3E F5 E3 D6
    12 5E 44 F1 BF 71 42 7D 58 84 03 80 B1 81 01 FA
    F9 CA 32 BB B4 8E 27 87 27 C5 2B 74 D4 A8 D6 97
    DE C3 64 F9 CA CE 53 A2 56 BC 78 17 8E 49 03 29
    AE FB 49 4F A4 15 B9 CE F2 5C 19 57 6D 6B 79 A7
    2B A2 27 20 13 B5 D0 3D 40 D3 21 30 07 93 EA 99
    F5 02 03 01 00 01
Public Key Type : RSA (1.2.840.113549.1.1.1)
Fingerprint : SHA1 : 
    1C 58 A3 A8 51 8E 87 59 BF 07 5B 76 B7 50 D4 F2
    DF 26 4F CD
Fingerprint : MD5 : 
    E6 7B 58 6F 70 46 BF E0 AA 51 F6 66 0B 11 9D D9
Fingerprint : SHA256 : 
    52 27 4C 57 CE 4D EE 3B 49 DB 7A 7F F7 08 C0 40
    F7 71 89 8B 3B E8 87 25 A8 6F B4 43 01 82 FE 14
Fingerprint : HPKP : 
    RQeZkB42znUfsDIIFWIRiYEcKl7nHwNFwWCrnMMJbVc=
Extensions
    basicConstraints
        ca = true
        pathLen = 0
        critical
    SubjectKeyIdentifier
      keyIdentifier:
    B7 6B A2 EA A8 AA 84 8C 79 EA B4 DA 0F 98 B2 C5
    95 76 B9 F4
    AuthorityKeyIdentifier
      keyIdentifier:
    03 DE 50 35 56 D1 4C BB 66 F0 A3 E2 1B 1B C3 97
    B2 3D D1 55
      authorityIdentifier:
      authorityCertSerialNumber:
    key usage: digitalSignature, keyCertSign, cRLSign
        critical
    eku
        serverAuth
        clientAuth
    AuthorityInfoAccess
    PKIX_AD_OCSP (1.3.6.1.5.5.7.48.1)
      accessLocation:uniformResourceID: http://ocsp.digicert.com
    PKIX_AD_CA_Issuer (1.3.6.1.5.5.7.48.2)
      accessLocation:uniformResourceID: http://cacerts.digicert.com/DigiCertGlobalRootCA.crt
    CRLDistributionPoints
      fullname:
      uniformResourceID:GSKASNObject: OBJECT(tag=22, class=0) value: -----BEGIN HEX-----
16 31 68 74 74 70 3A 2F 2F 63 72 6C 33 2E 64 69     .1http://crl3.di
67 69 63 65 72 74 2E 63 6F 6D 2F 44 69 67 69 43     gicert.com/DigiC
65 72 74 47 6C 6F 62 61 6C 52 6F 6F 74 43 41 2E     ertGlobalRootCA.
63 72 6C                                            crl
-----END HEX-----

    certificatePolicies
        2.16.840.1.114412.2.1
        2.23.140.1.1
        2.23.140.1.2.1
        2.23.140.1.2.2
        2.23.140.1.2.3
Signature Algorithm : SHA256WithRSASignature (1.2.840.113549.1.1.11)
Value
    80 32 CE 5E 0B DD 6E 5A 0D 0A AF E1 D6 84 CB C0
    8E FA 85 70 ED DA 5D B3 0C F7 2B 75 40 FE 85 0A
    FA F3 31 78 B7 70 4B 1A 89 58 BA 80 BD F3 6B 1D
    E9 7E CF 0B BA 58 9C 59 D4 90 D3 FD 6C FD D0 98
    6D B7 71 82 5B CF 6D 0B 5A 09 D0 7B DE C4 43 D8
    2A A4 DE 9E 41 26 5F BB 8F 99 CB DD AE E1 A8 6F
    9F 87 FE 74 B7 1F 1B 20 AB B1 4F C6 F5 67 5D 5D
    9B 3C E9 FF 69 F7 61 6C D6 D9 F3 FD 36 C6 AB 03
    88 76 D2 4B 2E 75 86 E3 FC D8 55 7D 26 C2 11 77
    DF 3E 02 B6 7C F3 AB 7B 7A 86 36 6F B8 F7 D8 93
    71 CF 86 DF 73 30 FA 7B AB ED 2A 59 C8 42 84 3B
    11 17 1A 52 F3 C9 0E 14 7D A2 5B 72 67 BA 71 ED
    57 47 66 C5 B8 02 4A 65 34 5E 8B D0 2A 3C 20 9C
    51 99 4C E7 52 9E F7 6B 11 2B 0D 92 7E 1D E8 8A
    EB 36 16 43 87 EA 2A 63 BF 75 3F EB DE C4 03 BB
    0A 3C F7 30 EF EB AF 4C FC 8B 36 10 73 3E F3 A4
Trust Status : Enabled
